[root]
type=Root
children=system
eventq_index=0
full_system=false
sim_quantum=0
time_sync_enable=false
time_sync_period=100000000000
time_sync_spin_threshold=100000000

[system]
type=System
children=clk_domain cpu00 cpu01 cpu02 cpu03 cpu04 cpu05 cpu06 cpu07 cpu08 cpu09 cpu10 cpu11 cpu12 cpu13 cpu14 cpu15 cpu_clk_domain cpu_voltage_domain dvfs_handler l2 mem_ctrls membus tol2bus voltage_domain
boot_osflags=a
cache_line_size=64
clk_domain=system.clk_domain
eventq_index=0
exit_on_work_items=false
init_param=0
kernel=
kernel_addr_check=true
load_addr_mask=1099511627775
load_offset=0
mem_mode=timing
mem_ranges=0:536870911
memories=system.mem_ctrls
mmap_using_noreserve=false
multi_thread=false
num_work_ids=16
readfile=
symbolfile=
thermal_components=
thermal_model=Null
work_begin_ckpt_count=0
work_begin_cpu_id_exit=-1
work_begin_exit_count=0
work_cpus_ckpt_count=0
work_end_ckpt_count=0
work_end_exit_count=0
work_item_id=-1
system_port=system.membus.slave[0]

[system.clk_domain]
type=SrcClockDomain
clock=1000
domain_id=-1
eventq_index=0
init_perf_level=0
voltage_domain=system.voltage_domain

[system.cpu00]
type=DerivO3CPU
children=branchPred dcache dtb fuPool icache interrupts isa itb tracer workload
LFSTSize=1024
LQEntries=32
LSQCheckLoads=true
LSQDepCheckShift=4
SQEntries=32
SSITSize=1024
activity=0
backComSize=5
branchPred=system.cpu00.branchPred
cachePorts=200
checker=Null
clk_domain=system.cpu_clk_domain
commitToDecodeDelay=1
commitToFetchDelay=1
commitToIEWDelay=1
commitToRenameDelay=1
commitWidth=8
cpu_id=0
decodeToFetchDelay=1
decodeToRenameDelay=1
decodeWidth=8
dispatchWidth=8
do_checkpoint_insts=true
do_quiesce=true
do_statistics_insts=true
dtb=system.cpu00.dtb
eventq_index=0
fetchBufferSize=64
fetchQueueSize=32
fetchToDecodeDelay=1
fetchTrapLatency=1
fetchWidth=8
forwardComSize=5
fuPool=system.cpu00.fuPool
function_trace=false
function_trace_start=0
iewToCommitDelay=1
iewToDecodeDelay=1
iewToFetchDelay=1
iewToRenameDelay=1
interrupts=system.cpu00.interrupts
isa=system.cpu00.isa
issueToExecuteDelay=1
issueWidth=8
itb=system.cpu00.itb
max_insts_all_threads=0
max_insts_any_thread=0
max_loads_all_threads=0
max_loads_any_thread=0
needsTSO=false
numIQEntries=64
numPhysCCRegs=0
numPhysFloatRegs=256
numPhysIntRegs=256
numROBEntries=192
numRobs=1
numThreads=1
profile=0
progress_interval=0
renameToDecodeDelay=1
renameToFetchDelay=1
renameToIEWDelay=2
renameToROBDelay=1
renameWidth=8
simpoint_start_insts=
smtCommitPolicy=RoundRobin
smtFetchPolicy=SingleThread
smtIQPolicy=Partitioned
smtIQThreshold=100
smtLSQPolicy=Partitioned
smtLSQThreshold=100
smtNumFetchingThreads=1
smtROBPolicy=Partitioned
smtROBThreshold=100
socket_id=0
squashWidth=8
store_set_clear_period=250000
switched_out=false
system=system
tracer=system.cpu00.tracer
trapLatency=13
wbWidth=8
workload=system.cpu00.workload
dcache_port=system.cpu00.dcache.cpu_side
icache_port=system.cpu00.icache.cpu_side

[system.cpu00.branchPred]
type=TournamentBP
BTBEntries=4096
BTBTagSize=16
RASSize=16
choiceCtrBits=2
choicePredictorSize=8192
eventq_index=0
globalCtrBits=2
globalPredictorSize=8192
indirectHashGHR=true
indirectHashTargets=true
indirectPathLength=3
indirectSets=256
indirectTagSize=16
indirectWays=2
instShiftAmt=2
localCtrBits=2
localHistoryTableSize=2048
localPredictorSize=2048
numThreads=1
useIndirect=true

[system.cpu00.dcache]
type=Cache
children=tags
addr_ranges=0:18446744073709551615
assoc=2
clk_domain=system.cpu_clk_domain
clusivity=mostly_incl
demand_mshr_reserve=1
eventq_index=0
hit_latency=1
is_read_only=false
max_miss_count=0
mshrs=4
prefetch_on_access=false
prefetcher=Null
response_latency=1
sequential_access=false
size=8192
system=system
tags=system.cpu00.dcache.tags
tgts_per_mshr=20
write_buffers=8
writeback_clean=false
cpu_side=system.cpu00.dcache_port
mem_side=system.tol2bus.slave[1]

[system.cpu00.dcache.tags]
type=LRU
assoc=2
block_size=64
clk_domain=system.cpu_clk_domain
eventq_index=0
hit_latency=1
sequential_access=false
size=8192

[system.cpu00.dtb]
type=AlphaTLB
eventq_index=0
size=64

[system.cpu00.fuPool]
type=FUPool
children=FUList0 FUList1 FUList2 FUList3 FUList4 FUList5 FUList6 FUList7 FUList8
FUList=system.cpu00.fuPool.FUList0 system.cpu00.fuPool.FUList1 system.cpu00.fuPool.FUList2 system.cpu00.fuPool.FUList3 system.cpu00.fuPool.FUList4 system.cpu00.fuPool.FUList5 system.cpu00.fuPool.FUList6 system.cpu00.fuPool.FUList7 system.cpu00.fuPool.FUList8
eventq_index=0

[system.cpu00.fuPool.FUList0]
type=FUDesc
children=opList
count=6
eventq_index=0
opList=system.cpu00.fuPool.FUList0.opList

[system.cpu00.fuPool.FUList0.opList]
type=OpDesc
eventq_index=0
opClass=IntAlu
opLat=1
pipelined=true

[system.cpu00.fuPool.FUList1]
type=FUDesc
children=opList0 opList1
count=2
eventq_index=0
opList=system.cpu00.fuPool.FUList1.opList0 system.cpu00.fuPool.FUList1.opList1

[system.cpu00.fuPool.FUList1.opList0]
type=OpDesc
eventq_index=0
opClass=IntMult
opLat=3
pipelined=true

[system.cpu00.fuPool.FUList1.opList1]
type=OpDesc
eventq_index=0
opClass=IntDiv
opLat=20
pipelined=false

[system.cpu00.fuPool.FUList2]
type=FUDesc
children=opList0 opList1 opList2
count=4
eventq_index=0
opList=system.cpu00.fuPool.FUList2.opList0 system.cpu00.fuPool.FUList2.opList1 system.cpu00.fuPool.FUList2.opList2

[system.cpu00.fuPool.FUList2.opList0]
type=OpDesc
eventq_index=0
opClass=FloatAdd
opLat=2
pipelined=true

[system.cpu00.fuPool.FUList2.opList1]
type=OpDesc
eventq_index=0
opClass=FloatCmp
opLat=2
pipelined=true

[system.cpu00.fuPool.FUList2.opList2]
type=OpDesc
eventq_index=0
opClass=FloatCvt
opLat=2
pipelined=true

[system.cpu00.fuPool.FUList3]
type=FUDesc
children=opList0 opList1 opList2
count=2
eventq_index=0
opList=system.cpu00.fuPool.FUList3.opList0 system.cpu00.fuPool.FUList3.opList1 system.cpu00.fuPool.FUList3.opList2

[system.cpu00.fuPool.FUList3.opList0]
type=OpDesc
eventq_index=0
opClass=FloatMult
opLat=4
pipelined=true

[system.cpu00.fuPool.FUList3.opList1]
type=OpDesc
eventq_index=0
opClass=FloatDiv
opLat=12
pipelined=false

[system.cpu00.fuPool.FUList3.opList2]
type=OpDesc
eventq_index=0
opClass=FloatSqrt
opLat=24
pipelined=false

[system.cpu00.fuPool.FUList4]
type=FUDesc
children=opList
count=0
eventq_index=0
opList=system.cpu00.fuPool.FUList4.opList

[system.cpu00.fuPool.FUList4.opList]
type=OpDesc
eventq_index=0
opClass=MemRead
opLat=1
pipelined=true

[system.cpu00.fuPool.FUList5]
type=FUDesc
children=opList00 opList01 opList02 opList03 opList04 opList05 opList06 opList07 opList08 opList09 opList10 opList11 opList12 opList13 opList14 opList15 opList16 opList17 opList18 opList19
count=4
eventq_index=0
opList=system.cpu00.fuPool.FUList5.opList00 system.cpu00.fuPool.FUList5.opList01 system.cpu00.fuPool.FUList5.opList02 system.cpu00.fuPool.FUList5.opList03 system.cpu00.fuPool.FUList5.opList04 system.cpu00.fuPool.FUList5.opList05 system.cpu00.fuPool.FUList5.opList06 system.cpu00.fuPool.FUList5.opList07 system.cpu00.fuPool.FUList5.opList08 system.cpu00.fuPool.FUList5.opList09 system.cpu00.fuPool.FUList5.opList10 system.cpu00.fuPool.FUList5.opList11 system.cpu00.fuPool.FUList5.opList12 system.cpu00.fuPool.FUList5.opList13 system.cpu00.fuPool.FUList5.opList14 system.cpu00.fuPool.FUList5.opList15 system.cpu00.fuPool.FUList5.opList16 system.cpu00.fuPool.FUList5.opList17 system.cpu00.fuPool.FUList5.opList18 system.cpu00.fuPool.FUList5.opList19

[system.cpu00.fuPool.FUList5.opList00]
type=OpDesc
eventq_index=0
opClass=SimdAdd
opLat=1
pipelined=true

[system.cpu00.fuPool.FUList5.opList01]
type=OpDesc
eventq_index=0
opClass=SimdAddAcc
opLat=1
pipelined=true

[system.cpu00.fuPool.FUList5.opList02]
type=OpDesc
eventq_index=0
opClass=SimdAlu
opLat=1
pipelined=true

[system.cpu00.fuPool.FUList5.opList03]
type=OpDesc
eventq_index=0
opClass=SimdCmp
opLat=1
pipelined=true

[system.cpu00.fuPool.FUList5.opList04]
type=OpDesc
eventq_index=0
opClass=SimdCvt
opLat=1
pipelined=true

[system.cpu00.fuPool.FUList5.opList05]
type=OpDesc
eventq_index=0
opClass=SimdMisc
opLat=1
pipelined=true

[system.cpu00.fuPool.FUList5.opList06]
type=OpDesc
eventq_index=0
opClass=SimdMult
opLat=1
pipelined=true

[system.cpu00.fuPool.FUList5.opList07]
type=OpDesc
eventq_index=0
opClass=SimdMultAcc
opLat=1
pipelined=true

[system.cpu00.fuPool.FUList5.opList08]
type=OpDesc
eventq_index=0
opClass=SimdShift
opLat=1
pipelined=true

[system.cpu00.fuPool.FUList5.opList09]
type=OpDesc
eventq_index=0
opClass=SimdShiftAcc
opLat=1
pipelined=true

[system.cpu00.fuPool.FUList5.opList10]
type=OpDesc
eventq_index=0
opClass=SimdSqrt
opLat=1
pipelined=true

[system.cpu00.fuPool.FUList5.opList11]
type=OpDesc
eventq_index=0
opClass=SimdFloatAdd
opLat=1
pipelined=true

[system.cpu00.fuPool.FUList5.opList12]
type=OpDesc
eventq_index=0
opClass=SimdFloatAlu
opLat=1
pipelined=true

[system.cpu00.fuPool.FUList5.opList13]
type=OpDesc
eventq_index=0
opClass=SimdFloatCmp
opLat=1
pipelined=true

[system.cpu00.fuPool.FUList5.opList14]
type=OpDesc
eventq_index=0
opClass=SimdFloatCvt
opLat=1
pipelined=true

[system.cpu00.fuPool.FUList5.opList15]
type=OpDesc
eventq_index=0
opClass=SimdFloatDiv
opLat=1
pipelined=true

[system.cpu00.fuPool.FUList5.opList16]
type=OpDesc
eventq_index=0
opClass=SimdFloatMisc
opLat=1
pipelined=true

[system.cpu00.fuPool.FUList5.opList17]
type=OpDesc
eventq_index=0
opClass=SimdFloatMult
opLat=1
pipelined=true

[system.cpu00.fuPool.FUList5.opList18]
type=OpDesc
eventq_index=0
opClass=SimdFloatMultAcc
opLat=1
pipelined=true

[system.cpu00.fuPool.FUList5.opList19]
type=OpDesc
eventq_index=0
opClass=SimdFloatSqrt
opLat=1
pipelined=true

[system.cpu00.fuPool.FUList6]
type=FUDesc
children=opList
count=0
eventq_index=0
opList=system.cpu00.fuPool.FUList6.opList

[system.cpu00.fuPool.FUList6.opList]
type=OpDesc
eventq_index=0
opClass=MemWrite
opLat=1
pipelined=true

[system.cpu00.fuPool.FUList7]
type=FUDesc
children=opList0 opList1
count=4
eventq_index=0
opList=system.cpu00.fuPool.FUList7.opList0 system.cpu00.fuPool.FUList7.opList1

[system.cpu00.fuPool.FUList7.opList0]
type=OpDesc
eventq_index=0
opClass=MemRead
opLat=1
pipelined=true

[system.cpu00.fuPool.FUList7.opList1]
type=OpDesc
eventq_index=0
opClass=MemWrite
opLat=1
pipelined=true

[system.cpu00.fuPool.FUList8]
type=FUDesc
children=opList
count=1
eventq_index=0
opList=system.cpu00.fuPool.FUList8.opList

[system.cpu00.fuPool.FUList8.opList]
type=OpDesc
eventq_index=0
opClass=IprAccess
opLat=3
pipelined=false

[system.cpu00.icache]
type=Cache
children=tags
addr_ranges=0:18446744073709551615
assoc=2
clk_domain=system.cpu_clk_domain
clusivity=mostly_incl
demand_mshr_reserve=1
eventq_index=0
hit_latency=1
is_read_only=true
max_miss_count=0
mshrs=4
prefetch_on_access=false
prefetcher=Null
response_latency=1
sequential_access=false
size=32768
system=system
tags=system.cpu00.icache.tags
tgts_per_mshr=20
write_buffers=8
writeback_clean=true
cpu_side=system.cpu00.icache_port
mem_side=system.tol2bus.slave[0]

[system.cpu00.icache.tags]
type=LRU
assoc=2
block_size=64
clk_domain=system.cpu_clk_domain
eventq_index=0
hit_latency=1
sequential_access=false
size=32768

[system.cpu00.interrupts]
type=AlphaInterrupts
eventq_index=0

[system.cpu00.isa]
type=AlphaISA
eventq_index=0
system=system

[system.cpu00.itb]
type=AlphaTLB
eventq_index=0
size=48

[system.cpu00.tracer]
type=ExeTracer
eventq_index=0

[system.cpu00.workload]
type=LiveProcess
cmd=/home/ubuntu/gem5/splash2/fft/FFT -p16
cwd=/home/ubuntu/gem5/script/multirun/2020-07-20/01-27-34/47
drivers=
egid=100
env=
errout=cerr
euid=100
eventq_index=0
executable=/home/ubuntu/gem5/splash2/fft/FFT
gid=100
input=cin
kvmInSE=false
max_stack_size=67108864
output=cout
pid=100
ppid=99
simpoint=0
system=system
uid=100
useArchPT=false

[system.cpu01]
type=DerivO3CPU
children=branchPred dcache dtb fuPool icache interrupts isa itb tracer
LFSTSize=1024
LQEntries=32
LSQCheckLoads=true
LSQDepCheckShift=4
SQEntries=32
SSITSize=1024
activity=0
backComSize=5
branchPred=system.cpu01.branchPred
cachePorts=200
checker=Null
clk_domain=system.cpu_clk_domain
commitToDecodeDelay=1
commitToFetchDelay=1
commitToIEWDelay=1
commitToRenameDelay=1
commitWidth=8
cpu_id=1
decodeToFetchDelay=1
decodeToRenameDelay=1
decodeWidth=8
dispatchWidth=8
do_checkpoint_insts=true
do_quiesce=true
do_statistics_insts=true
dtb=system.cpu01.dtb
eventq_index=0
fetchBufferSize=64
fetchQueueSize=32
fetchToDecodeDelay=1
fetchTrapLatency=1
fetchWidth=8
forwardComSize=5
fuPool=system.cpu01.fuPool
function_trace=false
function_trace_start=0
iewToCommitDelay=1
iewToDecodeDelay=1
iewToFetchDelay=1
iewToRenameDelay=1
interrupts=system.cpu01.interrupts
isa=system.cpu01.isa
issueToExecuteDelay=1
issueWidth=8
itb=system.cpu01.itb
max_insts_all_threads=0
max_insts_any_thread=0
max_loads_all_threads=0
max_loads_any_thread=0
needsTSO=false
numIQEntries=64
numPhysCCRegs=0
numPhysFloatRegs=256
numPhysIntRegs=256
numROBEntries=192
numRobs=1
numThreads=1
profile=0
progress_interval=0
renameToDecodeDelay=1
renameToFetchDelay=1
renameToIEWDelay=2
renameToROBDelay=1
renameWidth=8
simpoint_start_insts=
smtCommitPolicy=RoundRobin
smtFetchPolicy=SingleThread
smtIQPolicy=Partitioned
smtIQThreshold=100
smtLSQPolicy=Partitioned
smtLSQThreshold=100
smtNumFetchingThreads=1
smtROBPolicy=Partitioned
smtROBThreshold=100
socket_id=0
squashWidth=8
store_set_clear_period=250000
switched_out=false
system=system
tracer=system.cpu01.tracer
trapLatency=13
wbWidth=8
workload=system.cpu00.workload
dcache_port=system.cpu01.dcache.cpu_side
icache_port=system.cpu01.icache.cpu_side

[system.cpu01.branchPred]
type=TournamentBP
BTBEntries=4096
BTBTagSize=16
RASSize=16
choiceCtrBits=2
choicePredictorSize=8192
eventq_index=0
globalCtrBits=2
globalPredictorSize=8192
indirectHashGHR=true
indirectHashTargets=true
indirectPathLength=3
indirectSets=256
indirectTagSize=16
indirectWays=2
instShiftAmt=2
localCtrBits=2
localHistoryTableSize=2048
localPredictorSize=2048
numThreads=1
useIndirect=true

[system.cpu01.dcache]
type=Cache
children=tags
addr_ranges=0:18446744073709551615
assoc=2
clk_domain=system.cpu_clk_domain
clusivity=mostly_incl
demand_mshr_reserve=1
eventq_index=0
hit_latency=1
is_read_only=false
max_miss_count=0
mshrs=4
prefetch_on_access=false
prefetcher=Null
response_latency=1
sequential_access=false
size=8192
system=system
tags=system.cpu01.dcache.tags
tgts_per_mshr=20
write_buffers=8
writeback_clean=false
cpu_side=system.cpu01.dcache_port
mem_side=system.tol2bus.slave[3]

[system.cpu01.dcache.tags]
type=LRU
assoc=2
block_size=64
clk_domain=system.cpu_clk_domain
eventq_index=0
hit_latency=1
sequential_access=false
size=8192

[system.cpu01.dtb]
type=AlphaTLB
eventq_index=0
size=64

[system.cpu01.fuPool]
type=FUPool
children=FUList0 FUList1 FUList2 FUList3 FUList4 FUList5 FUList6 FUList7 FUList8
FUList=system.cpu01.fuPool.FUList0 system.cpu01.fuPool.FUList1 system.cpu01.fuPool.FUList2 system.cpu01.fuPool.FUList3 system.cpu01.fuPool.FUList4 system.cpu01.fuPool.FUList5 system.cpu01.fuPool.FUList6 system.cpu01.fuPool.FUList7 system.cpu01.fuPool.FUList8
eventq_index=0

[system.cpu01.fuPool.FUList0]
type=FUDesc
children=opList
count=6
eventq_index=0
opList=system.cpu01.fuPool.FUList0.opList

[system.cpu01.fuPool.FUList0.opList]
type=OpDesc
eventq_index=0
opClass=IntAlu
opLat=1
pipelined=true

[system.cpu01.fuPool.FUList1]
type=FUDesc
children=opList0 opList1
count=2
eventq_index=0
opList=system.cpu01.fuPool.FUList1.opList0 system.cpu01.fuPool.FUList1.opList1

[system.cpu01.fuPool.FUList1.opList0]
type=OpDesc
eventq_index=0
opClass=IntMult
opLat=3
pipelined=true

[system.cpu01.fuPool.FUList1.opList1]
type=OpDesc
eventq_index=0
opClass=IntDiv
opLat=20
pipelined=false

[system.cpu01.fuPool.FUList2]
type=FUDesc
children=opList0 opList1 opList2
count=4
eventq_index=0
opList=system.cpu01.fuPool.FUList2.opList0 system.cpu01.fuPool.FUList2.opList1 system.cpu01.fuPool.FUList2.opList2

[system.cpu01.fuPool.FUList2.opList0]
type=OpDesc
eventq_index=0
opClass=FloatAdd
opLat=2
pipelined=true

[system.cpu01.fuPool.FUList2.opList1]
type=OpDesc
eventq_index=0
opClass=FloatCmp
opLat=2
pipelined=true

[system.cpu01.fuPool.FUList2.opList2]
type=OpDesc
eventq_index=0
opClass=FloatCvt
opLat=2
pipelined=true

[system.cpu01.fuPool.FUList3]
type=FUDesc
children=opList0 opList1 opList2
count=2
eventq_index=0
opList=system.cpu01.fuPool.FUList3.opList0 system.cpu01.fuPool.FUList3.opList1 system.cpu01.fuPool.FUList3.opList2

[system.cpu01.fuPool.FUList3.opList0]
type=OpDesc
eventq_index=0
opClass=FloatMult
opLat=4
pipelined=true

[system.cpu01.fuPool.FUList3.opList1]
type=OpDesc
eventq_index=0
opClass=FloatDiv
opLat=12
pipelined=false

[system.cpu01.fuPool.FUList3.opList2]
type=OpDesc
eventq_index=0
opClass=FloatSqrt
opLat=24
pipelined=false

[system.cpu01.fuPool.FUList4]
type=FUDesc
children=opList
count=0
eventq_index=0
opList=system.cpu01.fuPool.FUList4.opList

[system.cpu01.fuPool.FUList4.opList]
type=OpDesc
eventq_index=0
opClass=MemRead
opLat=1
pipelined=true

[system.cpu01.fuPool.FUList5]
type=FUDesc
children=opList00 opList01 opList02 opList03 opList04 opList05 opList06 opList07 opList08 opList09 opList10 opList11 opList12 opList13 opList14 opList15 opList16 opList17 opList18 opList19
count=4
eventq_index=0
opList=system.cpu01.fuPool.FUList5.opList00 system.cpu01.fuPool.FUList5.opList01 system.cpu01.fuPool.FUList5.opList02 system.cpu01.fuPool.FUList5.opList03 system.cpu01.fuPool.FUList5.opList04 system.cpu01.fuPool.FUList5.opList05 system.cpu01.fuPool.FUList5.opList06 system.cpu01.fuPool.FUList5.opList07 system.cpu01.fuPool.FUList5.opList08 system.cpu01.fuPool.FUList5.opList09 system.cpu01.fuPool.FUList5.opList10 system.cpu01.fuPool.FUList5.opList11 system.cpu01.fuPool.FUList5.opList12 system.cpu01.fuPool.FUList5.opList13 system.cpu01.fuPool.FUList5.opList14 system.cpu01.fuPool.FUList5.opList15 system.cpu01.fuPool.FUList5.opList16 system.cpu01.fuPool.FUList5.opList17 system.cpu01.fuPool.FUList5.opList18 system.cpu01.fuPool.FUList5.opList19

[system.cpu01.fuPool.FUList5.opList00]
type=OpDesc
eventq_index=0
opClass=SimdAdd
opLat=1
pipelined=true

[system.cpu01.fuPool.FUList5.opList01]
type=OpDesc
eventq_index=0
opClass=SimdAddAcc
opLat=1
pipelined=true

[system.cpu01.fuPool.FUList5.opList02]
type=OpDesc
eventq_index=0
opClass=SimdAlu
opLat=1
pipelined=true

[system.cpu01.fuPool.FUList5.opList03]
type=OpDesc
eventq_index=0
opClass=SimdCmp
opLat=1
pipelined=true

[system.cpu01.fuPool.FUList5.opList04]
type=OpDesc
eventq_index=0
opClass=SimdCvt
opLat=1
pipelined=true

[system.cpu01.fuPool.FUList5.opList05]
type=OpDesc
eventq_index=0
opClass=SimdMisc
opLat=1
pipelined=true

[system.cpu01.fuPool.FUList5.opList06]
type=OpDesc
eventq_index=0
opClass=SimdMult
opLat=1
pipelined=true

[system.cpu01.fuPool.FUList5.opList07]
type=OpDesc
eventq_index=0
opClass=SimdMultAcc
opLat=1
pipelined=true

[system.cpu01.fuPool.FUList5.opList08]
type=OpDesc
eventq_index=0
opClass=SimdShift
opLat=1
pipelined=true

[system.cpu01.fuPool.FUList5.opList09]
type=OpDesc
eventq_index=0
opClass=SimdShiftAcc
opLat=1
pipelined=true

[system.cpu01.fuPool.FUList5.opList10]
type=OpDesc
eventq_index=0
opClass=SimdSqrt
opLat=1
pipelined=true

[system.cpu01.fuPool.FUList5.opList11]
type=OpDesc
eventq_index=0
opClass=SimdFloatAdd
opLat=1
pipelined=true

[system.cpu01.fuPool.FUList5.opList12]
type=OpDesc
eventq_index=0
opClass=SimdFloatAlu
opLat=1
pipelined=true

[system.cpu01.fuPool.FUList5.opList13]
type=OpDesc
eventq_index=0
opClass=SimdFloatCmp
opLat=1
pipelined=true

[system.cpu01.fuPool.FUList5.opList14]
type=OpDesc
eventq_index=0
opClass=SimdFloatCvt
opLat=1
pipelined=true

[system.cpu01.fuPool.FUList5.opList15]
type=OpDesc
eventq_index=0
opClass=SimdFloatDiv
opLat=1
pipelined=true

[system.cpu01.fuPool.FUList5.opList16]
type=OpDesc
eventq_index=0
opClass=SimdFloatMisc
opLat=1
pipelined=true

[system.cpu01.fuPool.FUList5.opList17]
type=OpDesc
eventq_index=0
opClass=SimdFloatMult
opLat=1
pipelined=true

[system.cpu01.fuPool.FUList5.opList18]
type=OpDesc
eventq_index=0
opClass=SimdFloatMultAcc
opLat=1
pipelined=true

[system.cpu01.fuPool.FUList5.opList19]
type=OpDesc
eventq_index=0
opClass=SimdFloatSqrt
opLat=1
pipelined=true

[system.cpu01.fuPool.FUList6]
type=FUDesc
children=opList
count=0
eventq_index=0
opList=system.cpu01.fuPool.FUList6.opList

[system.cpu01.fuPool.FUList6.opList]
type=OpDesc
eventq_index=0
opClass=MemWrite
opLat=1
pipelined=true

[system.cpu01.fuPool.FUList7]
type=FUDesc
children=opList0 opList1
count=4
eventq_index=0
opList=system.cpu01.fuPool.FUList7.opList0 system.cpu01.fuPool.FUList7.opList1

[system.cpu01.fuPool.FUList7.opList0]
type=OpDesc
eventq_index=0
opClass=MemRead
opLat=1
pipelined=true

[system.cpu01.fuPool.FUList7.opList1]
type=OpDesc
eventq_index=0
opClass=MemWrite
opLat=1
pipelined=true

[system.cpu01.fuPool.FUList8]
type=FUDesc
children=opList
count=1
eventq_index=0
opList=system.cpu01.fuPool.FUList8.opList

[system.cpu01.fuPool.FUList8.opList]
type=OpDesc
eventq_index=0
opClass=IprAccess
opLat=3
pipelined=false

[system.cpu01.icache]
type=Cache
children=tags
addr_ranges=0:18446744073709551615
assoc=2
clk_domain=system.cpu_clk_domain
clusivity=mostly_incl
demand_mshr_reserve=1
eventq_index=0
hit_latency=1
is_read_only=true
max_miss_count=0
mshrs=4
prefetch_on_access=false
prefetcher=Null
response_latency=1
sequential_access=false
size=32768
system=system
tags=system.cpu01.icache.tags
tgts_per_mshr=20
write_buffers=8
writeback_clean=true
cpu_side=system.cpu01.icache_port
mem_side=system.tol2bus.slave[2]

[system.cpu01.icache.tags]
type=LRU
assoc=2
block_size=64
clk_domain=system.cpu_clk_domain
eventq_index=0
hit_latency=1
sequential_access=false
size=32768

[system.cpu01.interrupts]
type=AlphaInterrupts
eventq_index=0

[system.cpu01.isa]
type=AlphaISA
eventq_index=0
system=system

[system.cpu01.itb]
type=AlphaTLB
eventq_index=0
size=48

[system.cpu01.tracer]
type=ExeTracer
eventq_index=0

[system.cpu02]
type=DerivO3CPU
children=branchPred dcache dtb fuPool icache interrupts isa itb tracer
LFSTSize=1024
LQEntries=32
LSQCheckLoads=true
LSQDepCheckShift=4
SQEntries=32
SSITSize=1024
activity=0
backComSize=5
branchPred=system.cpu02.branchPred
cachePorts=200
checker=Null
clk_domain=system.cpu_clk_domain
commitToDecodeDelay=1
commitToFetchDelay=1
commitToIEWDelay=1
commitToRenameDelay=1
commitWidth=8
cpu_id=2
decodeToFetchDelay=1
decodeToRenameDelay=1
decodeWidth=8
dispatchWidth=8
do_checkpoint_insts=true
do_quiesce=true
do_statistics_insts=true
dtb=system.cpu02.dtb
eventq_index=0
fetchBufferSize=64
fetchQueueSize=32
fetchToDecodeDelay=1
fetchTrapLatency=1
fetchWidth=8
forwardComSize=5
fuPool=system.cpu02.fuPool
function_trace=false
function_trace_start=0
iewToCommitDelay=1
iewToDecodeDelay=1
iewToFetchDelay=1
iewToRenameDelay=1
interrupts=system.cpu02.interrupts
isa=system.cpu02.isa
issueToExecuteDelay=1
issueWidth=8
itb=system.cpu02.itb
max_insts_all_threads=0
max_insts_any_thread=0
max_loads_all_threads=0
max_loads_any_thread=0
needsTSO=false
numIQEntries=64
numPhysCCRegs=0
numPhysFloatRegs=256
numPhysIntRegs=256
numROBEntries=192
numRobs=1
numThreads=1
profile=0
progress_interval=0
renameToDecodeDelay=1
renameToFetchDelay=1
renameToIEWDelay=2
renameToROBDelay=1
renameWidth=8
simpoint_start_insts=
smtCommitPolicy=RoundRobin
smtFetchPolicy=SingleThread
smtIQPolicy=Partitioned
smtIQThreshold=100
smtLSQPolicy=Partitioned
smtLSQThreshold=100
smtNumFetchingThreads=1
smtROBPolicy=Partitioned
smtROBThreshold=100
socket_id=0
squashWidth=8
store_set_clear_period=250000
switched_out=false
system=system
tracer=system.cpu02.tracer
trapLatency=13
wbWidth=8
workload=system.cpu00.workload
dcache_port=system.cpu02.dcache.cpu_side
icache_port=system.cpu02.icache.cpu_side

[system.cpu02.branchPred]
type=TournamentBP
BTBEntries=4096
BTBTagSize=16
RASSize=16
choiceCtrBits=2
choicePredictorSize=8192
eventq_index=0
globalCtrBits=2
globalPredictorSize=8192
indirectHashGHR=true
indirectHashTargets=true
indirectPathLength=3
indirectSets=256
indirectTagSize=16
indirectWays=2
instShiftAmt=2
localCtrBits=2
localHistoryTableSize=2048
localPredictorSize=2048
numThreads=1
useIndirect=true

[system.cpu02.dcache]
type=Cache
children=tags
addr_ranges=0:18446744073709551615
assoc=2
clk_domain=system.cpu_clk_domain
clusivity=mostly_incl
demand_mshr_reserve=1
eventq_index=0
hit_latency=1
is_read_only=false
max_miss_count=0
mshrs=4
prefetch_on_access=false
prefetcher=Null
response_latency=1
sequential_access=false
size=8192
system=system
tags=system.cpu02.dcache.tags
tgts_per_mshr=20
write_buffers=8
writeback_clean=false
cpu_side=system.cpu02.dcache_port
mem_side=system.tol2bus.slave[5]

[system.cpu02.dcache.tags]
type=LRU
assoc=2
block_size=64
clk_domain=system.cpu_clk_domain
eventq_index=0
hit_latency=1
sequential_access=false
size=8192

[system.cpu02.dtb]
type=AlphaTLB
eventq_index=0
size=64

[system.cpu02.fuPool]
type=FUPool
children=FUList0 FUList1 FUList2 FUList3 FUList4 FUList5 FUList6 FUList7 FUList8
FUList=system.cpu02.fuPool.FUList0 system.cpu02.fuPool.FUList1 system.cpu02.fuPool.FUList2 system.cpu02.fuPool.FUList3 system.cpu02.fuPool.FUList4 system.cpu02.fuPool.FUList5 system.cpu02.fuPool.FUList6 system.cpu02.fuPool.FUList7 system.cpu02.fuPool.FUList8
eventq_index=0

[system.cpu02.fuPool.FUList0]
type=FUDesc
children=opList
count=6
eventq_index=0
opList=system.cpu02.fuPool.FUList0.opList

[system.cpu02.fuPool.FUList0.opList]
type=OpDesc
eventq_index=0
opClass=IntAlu
opLat=1
pipelined=true

[system.cpu02.fuPool.FUList1]
type=FUDesc
children=opList0 opList1
count=2
eventq_index=0
opList=system.cpu02.fuPool.FUList1.opList0 system.cpu02.fuPool.FUList1.opList1

[system.cpu02.fuPool.FUList1.opList0]
type=OpDesc
eventq_index=0
opClass=IntMult
opLat=3
pipelined=true

[system.cpu02.fuPool.FUList1.opList1]
type=OpDesc
eventq_index=0
opClass=IntDiv
opLat=20
pipelined=false

[system.cpu02.fuPool.FUList2]
type=FUDesc
children=opList0 opList1 opList2
count=4
eventq_index=0
opList=system.cpu02.fuPool.FUList2.opList0 system.cpu02.fuPool.FUList2.opList1 system.cpu02.fuPool.FUList2.opList2

[system.cpu02.fuPool.FUList2.opList0]
type=OpDesc
eventq_index=0
opClass=FloatAdd
opLat=2
pipelined=true

[system.cpu02.fuPool.FUList2.opList1]
type=OpDesc
eventq_index=0
opClass=FloatCmp
opLat=2
pipelined=true

[system.cpu02.fuPool.FUList2.opList2]
type=OpDesc
eventq_index=0
opClass=FloatCvt
opLat=2
pipelined=true

[system.cpu02.fuPool.FUList3]
type=FUDesc
children=opList0 opList1 opList2
count=2
eventq_index=0
opList=system.cpu02.fuPool.FUList3.opList0 system.cpu02.fuPool.FUList3.opList1 system.cpu02.fuPool.FUList3.opList2

[system.cpu02.fuPool.FUList3.opList0]
type=OpDesc
eventq_index=0
opClass=FloatMult
opLat=4
pipelined=true

[system.cpu02.fuPool.FUList3.opList1]
type=OpDesc
eventq_index=0
opClass=FloatDiv
opLat=12
pipelined=false

[system.cpu02.fuPool.FUList3.opList2]
type=OpDesc
eventq_index=0
opClass=FloatSqrt
opLat=24
pipelined=false

[system.cpu02.fuPool.FUList4]
type=FUDesc
children=opList
count=0
eventq_index=0
opList=system.cpu02.fuPool.FUList4.opList

[system.cpu02.fuPool.FUList4.opList]
type=OpDesc
eventq_index=0
opClass=MemRead
opLat=1
pipelined=true

[system.cpu02.fuPool.FUList5]
type=FUDesc
children=opList00 opList01 opList02 opList03 opList04 opList05 opList06 opList07 opList08 opList09 opList10 opList11 opList12 opList13 opList14 opList15 opList16 opList17 opList18 opList19
count=4
eventq_index=0
opList=system.cpu02.fuPool.FUList5.opList00 system.cpu02.fuPool.FUList5.opList01 system.cpu02.fuPool.FUList5.opList02 system.cpu02.fuPool.FUList5.opList03 system.cpu02.fuPool.FUList5.opList04 system.cpu02.fuPool.FUList5.opList05 system.cpu02.fuPool.FUList5.opList06 system.cpu02.fuPool.FUList5.opList07 system.cpu02.fuPool.FUList5.opList08 system.cpu02.fuPool.FUList5.opList09 system.cpu02.fuPool.FUList5.opList10 system.cpu02.fuPool.FUList5.opList11 system.cpu02.fuPool.FUList5.opList12 system.cpu02.fuPool.FUList5.opList13 system.cpu02.fuPool.FUList5.opList14 system.cpu02.fuPool.FUList5.opList15 system.cpu02.fuPool.FUList5.opList16 system.cpu02.fuPool.FUList5.opList17 system.cpu02.fuPool.FUList5.opList18 system.cpu02.fuPool.FUList5.opList19

[system.cpu02.fuPool.FUList5.opList00]
type=OpDesc
eventq_index=0
opClass=SimdAdd
opLat=1
pipelined=true

[system.cpu02.fuPool.FUList5.opList01]
type=OpDesc
eventq_index=0
opClass=SimdAddAcc
opLat=1
pipelined=true

[system.cpu02.fuPool.FUList5.opList02]
type=OpDesc
eventq_index=0
opClass=SimdAlu
opLat=1
pipelined=true

[system.cpu02.fuPool.FUList5.opList03]
type=OpDesc
eventq_index=0
opClass=SimdCmp
opLat=1
pipelined=true

[system.cpu02.fuPool.FUList5.opList04]
type=OpDesc
eventq_index=0
opClass=SimdCvt
opLat=1
pipelined=true

[system.cpu02.fuPool.FUList5.opList05]
type=OpDesc
eventq_index=0
opClass=SimdMisc
opLat=1
pipelined=true

[system.cpu02.fuPool.FUList5.opList06]
type=OpDesc
eventq_index=0
opClass=SimdMult
opLat=1
pipelined=true

[system.cpu02.fuPool.FUList5.opList07]
type=OpDesc
eventq_index=0
opClass=SimdMultAcc
opLat=1
pipelined=true

[system.cpu02.fuPool.FUList5.opList08]
type=OpDesc
eventq_index=0
opClass=SimdShift
opLat=1
pipelined=true

[system.cpu02.fuPool.FUList5.opList09]
type=OpDesc
eventq_index=0
opClass=SimdShiftAcc
opLat=1
pipelined=true

[system.cpu02.fuPool.FUList5.opList10]
type=OpDesc
eventq_index=0
opClass=SimdSqrt
opLat=1
pipelined=true

[system.cpu02.fuPool.FUList5.opList11]
type=OpDesc
eventq_index=0
opClass=SimdFloatAdd
opLat=1
pipelined=true

[system.cpu02.fuPool.FUList5.opList12]
type=OpDesc
eventq_index=0
opClass=SimdFloatAlu
opLat=1
pipelined=true

[system.cpu02.fuPool.FUList5.opList13]
type=OpDesc
eventq_index=0
opClass=SimdFloatCmp
opLat=1
pipelined=true

[system.cpu02.fuPool.FUList5.opList14]
type=OpDesc
eventq_index=0
opClass=SimdFloatCvt
opLat=1
pipelined=true

[system.cpu02.fuPool.FUList5.opList15]
type=OpDesc
eventq_index=0
opClass=SimdFloatDiv
opLat=1
pipelined=true

[system.cpu02.fuPool.FUList5.opList16]
type=OpDesc
eventq_index=0
opClass=SimdFloatMisc
opLat=1
pipelined=true

[system.cpu02.fuPool.FUList5.opList17]
type=OpDesc
eventq_index=0
opClass=SimdFloatMult
opLat=1
pipelined=true
